/*--------------------------------*- C++ -*----------------------------------*\
| =========                 |                                                 |
| \\      /  F ield         | OpenFOAM: The Open Source CFD Toolbox           |
|  \\    /   O peration     | Version:  v1912                                 |
|   \\  /    A nd           | Website:  www.openfoam.com                      |
|    \\/     M anipulation  |                                                 |
\*---------------------------------------------------------------------------*/
FoamFile
{
    version     2.0;
    format      ascii;
    class       dictionary;
    object      fvOptions;
}
// * * * * * * * * * * * * * * * * * * * * * * * * * * * * * * * * * * * * * //

limitT
{
   type            limitTemperature;
   active          yes;

   selectionMode   all;
   min             293;
   max             2500;
}
//--limit max velocity magnitude
limitU
{
    type    limitVelocity;
    active  yes;

    selectionMode  all;
    max   100.;
}
//************************************************************************** //
