/*--------------------------------*- C++ -*----------------------------------*\
| =========                 |                                                 |
| \\      /  F ield         | OpenFOAM: The Open Source CFD Toolbox           |
|  \\    /   O peration     | Version:  v1806                                 |
|   \\  /    A nd           | Web:      www.OpenFOAM.com                      |
|    \\/     M anipulation  |                                                 |
\*---------------------------------------------------------------------------*/
FoamFile
{
    version     2.0;
    format      ascii;
    class       dictionary;
    location    "constant";
    object      pyrolysisZones;
}
// * * * * * * * * * * * * * * * * * * * * * * * * * * * * * * * * * * * * * //

pyrolysisBox
{
    active              true;

    pyrolysisModel      reactingOneDimFF;
    region              solidFuelRegion;
    pyrolysisRegion     solidFuelRegion;

    reactingOneDimFFCoeffs
    {
        gasHSource          no; //Energy source term due to pyrolysis gas
        qrHSource           no; //Energy source term due in depht radiation

        filmCoupled         true;

        radFluxName         Qr;

        moveMesh            false;
        minimumDelta        1e-6;
        useChemistrySolvers false;

        TcharStart      750;
        TcharOxiMax     800;

        Tmin            300;
        Tmax           2000;
    }
    infoOutput          true;
}
// ************************************************************************* //
