FoamFile
{
    version     2.0;
    format      ascii;
    class       dictionary;
    location    "constant/";
    object      regionProperties;
}

regions	(
		fluid	(region0)
		solid	(solidFuelRegion)
		film	(filmRegion)
	);
