/*--------------------------------*- C++ -*----------------------------------*\
| =========                 |                                                 |
| \\      /  F ield         | OpenFOAM: The Open Source CFD Toolbox           |
|  \\    /   O peration     | Version:  v1806                                 |
|   \\  /    A nd           | Web:      www.OpenFOAM.com                      |
|    \\/     M anipulation  |                                                 |
\*---------------------------------------------------------------------------*/
FoamFile
{
    version     2.0;
    format      ascii;
    class       dictionary;
    location    "constant";
    object      surfaceFilmProperties;
}
// * * * * * * * * * * * * * * * * * * * * * * * * * * * * * * * * * * * * * //

active           true;

surfaceFilmModel thermoSingleLayer;

region           filmRegion;

thermoSingleLayerCoeffs
{
    isActive    ${../active};
    top         true;
    filmThermoModel liquid;
    liquidCoeffs
    {
        useReferenceValues  no;
        liquid      H2O;
        Tmin	    273.15;
        Tmax	    400;
    }

    filmViscosityModel liquid;

    turbulence  laminar;
    laminarCoeffs
    {
        Cf          0.005;
    }

    forces (
            thermocapillary
            );

    filmDiversionCoeffs
    {
        coeff   0.0;
    }

    deltaWet 0.0002;
    hydrophilic true;
    hydrophilicDryScale 0.02;
    hydrophilicWetScale 0.5;

    preHeatingCells 3;
    preHeatingZoneMaxHeight 1.0;

    thermoModel singleComponent; // constant
    liquid      H2O;

    Tmax 500.0;
    Tmin 300.0;

    qRadConstant qRadConstant [0 0 0 0 0] 0;
    //size of window used in Jaaps single-panel radiative experiment
    qRadXMax qRadXMax [0 1 0 0 0] 0.65; // this number estimated from photograph
    qRadXMin qRadXMin [0 1 0 0 0] 0.24;  //
    qRadYMax qRadYMax [0 1 0 0 0] 0.485;
    qRadYMin qRadYMin [0 1 0 0 0] 0.025;
    qRadBegin qRadBegin [0 0 1 0 0] 4;
    qRadEnd qRadEnd     [0 0 1 0 0] 22;
    qRadEmissivity qRadRadEmissivity  [0 0 0 0 0] 0.96;
    qRadAbsorptivity qRadRadAbsorptivity  [0 0 0 0 0] 0.96;

    solveLumpedCapacitance false;
    
    radiationModel standardRadiation;

    standardRadiationCoeffs
    {
        deltaMin 1e-6;
        beta     0.9;
        kappaBar 1.e4;
    }

    deltaStable deltaStable [0 1 0 0 0] 0;

    Cf          0.005;

    partialWetting true;
    partialWettingCoeffs
    {
        hydrophilic true;
        dryToggle 0.01;
        wetToggle 0.5;
        contactAngleMean          75;
        contactAngleStdDev        10;
        contactAngleMax           100;
        contactAngleMin           50;
        contactAngleCoefficient          0.40;
        criticalFilmThickness   criticalFilmThickness [ 0 1 0 0 0 ] 0.00020;
    }
    htcw        htcw [1 0 -3 -1 0] 1e3; // 0.0;
    htcs        htcs [1 0 -3 -1 0] 1e-8; // 0.0;

    rho0         rho [1 -3 0 0 0] 1000;
    mu0          mu [1 -1 -1 0 0] 1e-3;
    sigma0       sigma [1 0 -2 0 0] 0.07;
    cp0          cp [0 2 -2 -1 0] 4187;
    kappa0      kappa0 [1 1 -3 -1 0] 0.6;
    hVap0      hVap0 [0 2 -2 0 0] 2265645.037;

    injectionModels (drippingInjection); 

    drippingInjectionCoeffs
    {
        cloudName    reactingCloud1;

        deltaStable  0.0007;

        particlesPerParcel 100.0;

        parcelDistribution
        {        
            type         uniform;
            uniformDistribution              
            {                            
                minValue        0.001;   
                maxValue        0.002;  
                d               ( 7.5e-05 );
                n               ( 0.5 );    
            }                               
        }                                   
    }

    phaseChangeModel standardPhaseChange; // only option currently available
    standardPhaseChangeCoeffs
    {
        deltaMin         1e-6; // mass transfer turned off when film thickness below this value
        L                1; // length scale used in mean Nusselt and Sherwood correlation
        Tb              373.15;
    }

    massAbsorptionModel none;

    upperSurfaceModels
    {
        heatTransferModel constant;  // submodels/thermo/heatTransferModel/constantHeatTransfer/constantHeatTransfer.C
        constantCoeffs
        {
            c0                10;
        }
    }

    lowerSurfaceModels
    {
        heatTransferModel constant;  // submodels/thermo/heatTransferModel/constantHeatTransfer/constantHeatTransfer.C
        constantCoeffs
        {
            c0                10;
        }
    }
}


