/*--------------------------------*- C++ -*----------------------------------*\
| =========                 |                                                 |
| \\      /  F ield         | OpenFOAM: The Open Source CFD Toolbox           |
|  \\    /   O peration     | Version:  v1806                                 |
|   \\  /    A nd           | Web:      www.OpenFOAM.com                      |
|    \\/     M anipulation  |                                                 |
\*---------------------------------------------------------------------------*/
FoamFile
{
    version     2.0;
    format      ascii;
    class       volScalarField;
    location    "0";
    object      alphat;
}
// * * * * * * * * * * * * * * * * * * * * * * * * * * * * * * * * * * * * * //

dimensions      [1 -1 -1 0 0 0 0];

internalField   uniform 0;

boundaryField
{
    outlet
    {
        type            inletOutlet;
        inletValue      $internalField;
        value           $internalField;
    }

    sideOpen
    {
        type            inletOutlet;
        inletValue      $internalField;
        value           $internalField;
    }

    ground
    {
        type		fixedValue;
        value		uniform 0;
    }

    burner
    {
        type		fixedValue;
        value		uniform 0;
    }

    "region0_to_solidFuel.*"
    {
        type                    alphatPyrolysisMeshCorrected;
        correctInternal         false;
        m60                     0.008;
        Prt                     1.0;
        fuelConversionRatio     3.0;
        C1                      200;
        C2                      0;
        LR                      0.0015;
        LB                      0.006;
        floorSurface            0.6;
        value                   uniform 0;
    }
}


// ************************************************************************* //
