/*--------------------------------*- C++ -*----------------------------------*\
| =========                 |                                                 |
| \\      /  F ield         | OpenFOAM: The Open Source CFD Toolbox           |
|  \\    /   O peration     | Version:  2.4.x                                 |
|   \\  /    A nd           | Web:      www.OpenFOAM.org                      |
|    \\/     M anipulation  |                                                 |
\*---------------------------------------------------------------------------*/
FoamFile
{
    version     2.0;
    format      ascii;
    class       volScalarField;
    location    "0";
    object      T;
}
// * * * * * * * * * * * * * * * * * * * * * * * * * * * * * * * * * * * * * //

dimensions      [0 0 0 1 0 0 0];

internalField   uniform 300;

boundaryField
{
    ground
    {
        type            fixedValue;
        value           $internalField;
    }

    outlet
    {
        type        inletOutlet;
        inletValue  $internalField;
        value       $internalField;
    }

    sideOpen
    {
        type        inletOutlet;
        inletValue  $internalField;
        value       $internalField;
    }

    burner
    {
        type        fixedValue;
        value       $internalField;
    }

    region0_to_solidFuelRegion_solidFuel
    {
        type                compressible::filmPyrolysisTemperatureCoupledFF;
        Tnbr                T;
        filmRegion          filmRegion;
        pyrolysisRegion     solidFuelRegion;
        K                   none;
        kappaMethod         fluidThermo;
        neighbourFieldRadiativeName     none;
        neighbourFieldConvectiveName    none;
        fieldRadiativeName  qin;
        fieldConvectiveName none;
        value               $internalField;
    }
}
// ************************************************************************* //
