/*--------------------------------*- C++ -*----------------------------------*\
| =========                 |                                                 |
| \\      /  F ield         | OpenFOAM: The Open Source CFD Toolbox           |
|  \\    /   O peration     | Version:  2.4.x                                 |
|   \\  /    A nd           | Web:      www.OpenFOAM.org                      |
|    \\/     M anipulation  |                                                 |
\*---------------------------------------------------------------------------*/
FoamFile
{
    version     2.0;
    format      ascii;
    class       volVectorField;
    location    "0";
    object      U;
}
// * * * * * * * * * * * * * * * * * * * * * * * * * * * * * * * * * * * * * //

dimensions      [0 1 -1 0 0 0 0];

internalField   uniform (0 0 0);

boundaryField
{
    ground
    {
        type            fixedValue;
        value           $internalField;
    }

    outlet
    {
        type            pressureInletOutletVelocity;
        value           $internalField;
    }

    sideOpen
    {
        type            pressureInletOutletVelocity;
        value           $internalField;
    }

    burner
    {
        type            flowRateInletVelocity;
        massFlowRate    table
        (
            (0   0.001)  // ~ 50 kW
            (10  0.0012) // ~ 60 kW
            (120 0.0012) // ~ 60 kW
            (180 0.000)  // ~ ignitor burns out after 5 min
        );
        value           uniform (0 0 0);
    }

    region0_to_solidFuelRegion_solidFuel
    {
        type            pyrolysisVelocityCoupled;
        phi             phi;
        nbrPhi          phiGas;
        rho             rho;
        virgin          v;
        char            char;
        hocVirgin       1.66e7;
        hocChar         3.28e7; 
        charring        true;
        complexFuel     false;
        value           uniform (0 0 0);
    }
}
// ************************************************************************* //
