/*--------------------------------*- C++ -*----------------------------------*\
| =========                 |                                                 |
| \\      /  F ield         | OpenFOAM: The Open Source CFD Toolbox           |
|  \\    /   O peration     | Version:  v1806                                 |
|   \\  /    A nd           | Web:      www.OpenFOAM.com                      |
|    \\/     M anipulation  |                                                 |
\*---------------------------------------------------------------------------*/
FoamFile
{
    version     2.0;
    format      ascii;
    class       volScalarField;
    location    "0/filmRegion";
    object      qemPyro;
}
// * * * * * * * * * * * * * * * * * * * * * * * * * * * * * * * * * * * * * //

dimensions      [1 0 -3 0 0 0 0];

internalField   uniform  0;

boundaryField
{
    solidFuel_top
    {
        type            zeroGradient;
    }

    burner
    {
        type            zeroGradient;
    }
    
    wall
    {
        type            zeroGradient;
    }

    ground
    {
        type            zeroGradient;
    }

    region0_to_filmRegion_solidFuel
    {
        type            mappedField;
        sampleRegion    solidFuelRegion;
        sampleMode      nearestPatchFace;
        samplePatch     region0_to_solidFuelRegion_solidFuel;
        flipNormals     yes;
        offset          (0 0 0);
        field           qemPyro;
        setAverage      no;
        average         0;
        value           uniform 0;
    }

    sideOpen
    {
        type            zeroGradient;
    }
}
// ************************************************************************* //
