/*--------------------------------*- C++ -*----------------------------------*\
| =========                 |                                                 |
| \\      /  F ield         | OpenFOAM: The Open Source CFD Toolbox           |
|  \\    /   O peration     | Version:  2.4.x                                 |
|   \\  /    A nd           | Web:      www.OpenFOAM.org                      |
|    \\/     M anipulation  |                                                 |
\*---------------------------------------------------------------------------*/
FoamFile
{
    version     2.0;
    format      ascii;
    class       volScalarField;
    location    "0/filmRegion";
    object      Tf;
}
// * * * * * * * * * * * * * * * * * * * * * * * * * * * * * * * * * * * * * //

dimensions      [0 0 0 1 0 0 0];

internalField   uniform  293;

boundaryField
{
    solidFuel_top
    {
        type            zeroGradient;
    }

    burner
    {
        type            zeroGradient;
    }
    
    wall
    {
        type            zeroGradient;
    }

    ground
    {
        type            zeroGradient;
    }

    region0_to_filmRegion_solidFuel
    {
        type            mappedField;
        sampleRegion    solidFuelRegion;
        sampleMode      nearestPatchFace;
        samplePatch     region0_to_solidFuelRegion_solidFuel;
        flipNormals     yes;
        offset          (0 0 0);
        field           T;
        setAverage      no;
        average         0;
        value           uniform 293;
    }

    sideOpen
    {
        type            zeroGradient;
    }
}
// ************************************************************************* //
