/*--------------------------------*- C++ -*----------------------------------*\
| =========                 |                                                 |
| \\      /  F ield         | OpenFOAM: The Open Source CFD Toolbox           |
|  \\    /   O peration     | Version:  2.4.x                                 |
|   \\  /    A nd           | Web:      www.OpenFOAM.org                      |
|    \\/     M anipulation  |                                                 |
\*---------------------------------------------------------------------------*/
FoamFile
{
    version     2.0;
    format      ascii;
    class       volVectorField;
    location    "0/filmRegion";
    object      Uf;
}
// * * * * * * * * * * * * * * * * * * * * * * * * * * * * * * * * * * * * * //

dimensions      [0 1 -1 0 0 0 0];

internalField   uniform (-0.1 0 0);

boundaryField
{
    solidFuel_top
    {
        type            zeroGradient;
    }

    burner
    {
        type            zeroGradient;
    }
    
    wall
    {
        type            zeroGradient;
    }

    ground
    {
        type            zeroGradient;
    }

    region0_to_filmRegion_solidFuel
    {
        type            fixedValue;
        value           uniform (0 0 0);
    }
    
    sideOpen
    {
        type            zeroGradient;
    }
}
// ************************************************************************* //
