/*--------------------------------*- C++ -*----------------------------------*\
| =========                 |                                                 |
| \\      /  F ield         | OpenFOAM: The Open Source CFD Toolbox           |
|  \\    /   O peration     | Version:  dev                                   |
|   \\  /    A nd           | Web:      www.OpenFOAM.org                      |
|    \\/     M anipulation  |                                                 |
\*---------------------------------------------------------------------------*/
FoamFile
{
    version     2.0;
    format      ascii;
    class       volScalarField;
    location    "0";
    object      C3H8;
}
// * * * * * * * * * * * * * * * * * * * * * * * * * * * * * * * * * * * * * //

dimensions      [0 0 0 0 0 0 0];

internalField   uniform 0;

boundaryField
{
    Sides_air
    {
        type            inletOutlet;
        inletValue      $internalField;
        value           $internalField;
    }

    Outlet
    {
        type            inletOutlet;
        inletValue      $internalField;
        value           $internalField;
    }

    Base
    {
        type            zeroGradient;
    }

    Inlet
    {
        type            totalFlowRateAdvectiveDiffusive;
        massFluxFraction 1;
        phi             phi;
        rho             rho;
        value           uniform 1;
    }
    
    region0_to_Facade_WallRegion_Facade_Wall
    {
        type                totalFlowRateAdvectiveDiffusive;
        massFluxFraction    1;
        phi                 phi;
        rho                 rho;
        value               uniform 1;
    }
    
    region0_to_Chamber_WallRegion_Chamber_Wall
    {
        type                totalFlowRateAdvectiveDiffusive;
        massFluxFraction    1;
        phi                 phi;
        rho                 rho;
        value               uniform 1;
    }
}


// ************************************************************************* //
